tests/corpus/asymmetric/vccs/vccs_asym.dss
// Asymmetric VCCS coverage: three inverter current sources — two 1-phase units
// on different phases with different Ppct plus a 3-phase unit — with unequal
// per-phase resistive loads. Curves inlined from the corpus VCCS library
// (Version8/Distrib/Examples/VCCS/HW_Inverters.txt) so the deck is
// self-contained.
clear
Set DefaultBaseFrequency=60

New circuit.vccs_asym basekv=0.360 pu=1.0 angle=0 phases=3 bus1=srcbus
~ r1=0.02 x1=0.02 r0=0.02 x0=0.02

New xycurve.bp1_1phase npts=3
~ xarray=[-0.820 0.0 0.820]
~ yarray=[-0.788 0.0 0.788]

New xycurve.bp2_1phase npts=5
~ xarray=[-0.4 -0.225 0.0  0.225 0.4]
~ yarray=[ 2.5  1.0   0.0 -1.0  -2.5]

New xycurve.z_1phase npts=51
~ xarray=[ 1.0000000000000 2.2359152843239 1.6751565366704 -1.2893178605388 -3.4980502585637 -3.2443310587837 -1.1309602219179 1.3269732197636 2.4826834307583 1.4795252902708  -0.5884400677158 -1.2561011006753 -0.8964007493426 -0.2502448288646 0.1965696305611 0.3541448415191 -0.2571272710122 -0.2896061130545 1.0381554433511 1.7902915763337  0.6996933333927 -0.9684861791958 -1.4454321523992 -0.5432488991394 1.1818507841993 2.0988090314141 1.0282299403587 -0.5858290175152 -1.5724867767607 -1.4364098494357  -0.4589795471098 1.0797066033630 1.2169198126213 0.0989602314997 -0.5405493831806 0.0719007537281 0.8335799892472 0.6702151256323 -0.3752279208451 -2.0558001553503  -2.4079823319574 -0.7183817553617 1.4783061268845 1.8364227325943 0.8536174817937 -0.2214277108881 -0.8122729458514 -0.6287067458017 0.0932869797062 0.4451827855865  0.2061659162831 ]
~ yarray=[ 0.0000000000000 0.3244315432891 0.3171628091832 -0.2108501016545 -0.9762351880777 -0.7399698479841 -0.0201950653926 0.7829480615341 1.0000000000000 0.5717944958992  -0.2214550588660 -0.7186565790504 -0.4161841874969 -0.1375954370224 0.2162389236219 0.2237111774825 0.1877288446256 -0.1317180644316 0.0414232423271 0.3254504869366  0.1656064075817 -0.3122432515571 -0.5338989690946 -0.2226466108170 0.2190599020462 0.5646897251848 0.2987290891686 -0.2824847857947 -0.4879416418683 -0.4023401442574  0.0120224675079 0.3287890263068 0.5747202855193 0.0774026330753 -0.2599646325554 -0.2699498867569 0.0796571331425 0.1805481938835 -0.0057638157865 -0.2824852607177  -0.5297496233260 -0.0661668775840 0.4919305500678 0.7384140169868 0.2048616585611 -0.1949185400439 -0.4230393984319 -0.3065235657524 -0.0469453167609 0.1601452633341  0.1119255091190 ]

New vccs.pv1 phases=1 bus1=srcbus.1 prated=3000 vrated=208
~ ppct=100 bp1='bp1_1phase' bp2='bp2_1phase' filter='z_1phase' fsample=10000

New vccs.pv2 phases=1 bus1=srcbus.2 prated=3000 vrated=208
~ ppct=60 bp1='bp1_1phase' bp2='bp2_1phase' filter='z_1phase' fsample=10000

New vccs.pv3 phases=3 bus1=srcbus prated=3000 vrated=360
~ ppct=50 bp1='bp1_1phase' bp2='bp2_1phase' filter='z_1phase' fsample=10000

! Per-phase-unequal resistive loads (L-N = 0.2078 kV).
New load.ra bus1=srcbus.1 phases=1 conn=wye model=2 kv=0.2078 kw=2.5 pf=0.98
New load.rc bus1=srcbus.3 phases=1 conn=wye model=2 kv=0.2078 kw=4.0 pf=0.95

Set voltagebases=[0.360]
Set maxiterations=100
calcv
